LTspice 24.0.12 for Windows
Circuit: * Z:\home\chris\Code\Pierre-IGGDriver\sim\simulation.asc
Start Time: Wed May 29 17:35:37 2024
Warning: Multiple definitions of model "dzt5551" Type: BJT
Warning: Multiple definitions of model "fmmta42" Type: BJT
Warning: Multiple definitions of model "2scr375p" Type: BJT
Warning: Multiple definitions of model "bc857b" Type: BJT
Warning: Multiple definitions of model "bc847c" Type: BJT
Warning: Multiple definitions of model "bc847b" Type: BJT
solver = Normal
Maximum thread count: 8
tnom = 27
temp = 27
method = modified trap
Direct Newton iteration for .op point succeeded.
Total elapsed time: 0.266 seconds.

